Version 4
SHEET 1 880 680
WIRE 160 -16 -16 -16
WIRE 160 96 160 -16
WIRE -16 144 -16 -16
WIRE 160 192 160 176
WIRE 160 192 128 192
WIRE 288 192 160 192
WIRE 416 192 288 192
WIRE 128 208 128 192
WIRE 288 240 288 192
WIRE -16 352 -16 224
WIRE 128 352 128 288
WIRE 128 352 -16 352
WIRE 288 352 288 304
WIRE 288 352 128 352
WIRE 416 352 288 352
WIRE 128 400 128 352
FLAG 128 400 0
FLAG 416 192 Vout
SYMBOL res 112 192 R0
SYMATTR InstName R2
SYMATTR Value 1K
SYMBOL res 144 80 R0
SYMATTR InstName R3
SYMATTR Value 1K
SYMBOL voltage -16 128 R0
WINDOW 123 24 124 Left 2
WINDOW 39 0 0 Left 0
SYMATTR Value2 AC 1 0
SYMATTR InstName V1
SYMATTR Value ""
SYMBOL cap 272 240 R0
SYMATTR InstName C1
SYMATTR Value 48µ
TEXT -8 496 Left 2 !.ac dec 100 100 30K
