Version 4
SHEET 1 1064 680
WIRE 32 -32 32 -64
WIRE 208 -32 32 -32
WIRE 304 -32 208 -32
WIRE 416 -32 304 -32
WIRE 32 16 32 -32
WIRE 208 16 208 -32
WIRE 304 32 304 -32
WIRE 416 32 416 -32
WIRE 208 112 208 96
WIRE 416 128 416 112
WIRE 32 160 32 96
WIRE 144 160 32 160
WIRE 304 176 304 112
WIRE 352 176 304 176
WIRE -208 192 -208 144
WIRE 304 192 304 176
WIRE 32 288 32 240
WIRE 208 288 208 208
WIRE 208 288 32 288
WIRE 272 288 208 288
WIRE 304 288 304 272
WIRE 304 288 272 288
WIRE 416 288 416 224
WIRE 416 288 304 288
WIRE 704 288 416 288
WIRE -208 336 -208 272
WIRE 272 336 272 288
FLAG 272 336 0
FLAG -208 336 0
FLAG -208 144 +5V
IOPIN -208 144 Out
FLAG 32 -64 +5V
IOPIN 32 -64 In
SYMBOL npn 144 112 R0
SYMATTR InstName Q1
SYMBOL npn 352 128 R0
SYMATTR InstName Q2
SYMATTR Value Q2N3904
SYMBOL res 16 144 R0
SYMATTR InstName R1
SYMATTR Value 1K
SYMBOL res 16 0 R0
SYMATTR InstName R2
SYMATTR Value 1K
SYMBOL res 288 16 R0
SYMATTR InstName R3
SYMATTR Value 1K
SYMBOL res 288 176 R0
SYMATTR InstName R4
SYMATTR Value 1K
SYMBOL res 192 0 R0
SYMATTR InstName R5
SYMATTR Value 500
SYMBOL res 400 16 R0
SYMATTR InstName R6
SYMATTR Value 500
SYMBOL voltage -208 176 R0
WINDOW 123 0 0 Left 0
WINDOW 39 0 0 Left 0
SYMATTR InstName V1
SYMATTR Value 5
TEXT -240 -208 Left 2 !.op
TEXT 16 -344 Left 2 !.model Q2N3904  NPN(Is=6.734f Xti=3 Eg=1.11 Vaf=74.03 Bf=416.4 Ne=1.259\n+                               Ise=6.734f Ikf=66.78m Xtb=1.5 Br=.7371 Nc=2 Isc=0 Ikr=0 Rc=1\n+                               Cjc=3.638p Mjc=.3085 Vjc=.75 Fc=.5 Cje=4.493p Mje=.2593 Vje=.75\n+                               Tr=239.5n Tf=301.2p Itf=.4 Vtf=4 Xtf=2 Rb=10)\n*
